* File: /home/IC/NCKU/lab1/pb3/decoder.pex.spi.pex
* Created: Mon Apr  7 16:10:27 2025
* Program "Calibre xRC"
* Version "v2019.3_15.11"
* Nominal Temperature: 27C
* Circuit Temperature: 27C
* 
.subckt PM_DECODER_C 35 39 43 47 51 55 59 63 67 71 113
c0 132 0 0.33763f
c1 130 0 0.0540634f
c2 126 0 0.310215f
c3 124 0 0.054322f
c4 113 0 0.0540279f
c5 112 0 0.268794f
c6 96 0 0.0830256f
c7 95 0 0.0912154f
c8 90 0 0.0912154f
c9 86 0 0.0797387f
c10 85 0 0.0912154f
c11 80 0 0.091213f
c12 77 0 0.102688f
c13 75 0 0.0971038f
c14 71 0 0.109664f
c15 67 0 0.330087f
c16 63 0 0.1142f
c17 59 0 0.344709f
c18 55 0 0.109664f
c19 51 0 0.339448f
c20 47 0 0.1142f
c21 43 0 0.343231f
c22 39 0 0.149536f
c23 35 0 0.196852f
c24 31 0 1.08839f
c25 30 0 0.0412185f
c26 29 0 0.0698945f
c27 27 0 0.0684607f
c28 26 0 0.479877f
c29 25 0 0.0518891f
c30 22 0 0.0346821f
c31 20 0 0.0495728f
r32 130 132 0.855217
r33 124 126 0.855217
r34 112 113 0.0488691
r35 96 132 0.0556043
r36 95 98 8.05107
r37 95 97 8.08937
r38 95 96 13.2552
r39 91 130 0.0556043
r40 90 93 8.05107
r41 90 92 8.08937
r42 90 91 13.2552
r43 86 126 0.0556043
r44 85 88 8.05107
r45 85 87 8.08937
r46 85 86 13.2552
r47 81 124 0.0556043
r48 80 83 8.05107
r49 80 82 8.08937
r50 80 81 13.2552
r51 75 113 8
r52 74 77 6.2234
r53 74 75 13.2552
r54 71 98 26.5
r55 67 97 96.75
r56 63 93 26.5
r57 59 92 96.75
r58 55 88 26.5
r59 51 87 96.75
r60 47 83 26.5
r61 43 82 96.75
r62 37 77 4.73303
r63 37 39 54
r64 33 77 4.73303
r65 33 35 68.75
r66 30 91 8
r67 29 31 0.0487391
r68 29 30 8
r69 27 31 2.8288
r70 25 81 8
r71 24 27 0.0487391
r72 24 26 0.0487391
r73 24 25 8
r74 22 26 1.781
r75 20 115 0.04875
r76 19 22 0.0487391
r77 19 20 8
r78 4 115 0.0255799
r79 4 112 0.8775
.ends

.subckt PM_DECODER_A 13 44 48 52 56 68 72 76 80
c0 123 0 0.106352f
c1 118 0 0.123305f
c2 113 0 0.106494f
c3 108 0 0.124524f
c4 103 0 0.167427f
c5 98 0 0.178113f
c6 93 0 0.172006f
c7 88 0 0.169908f
c8 85 0 0.57837f
c9 83 0 0.0279471f
c10 82 0 0.0661198f
c11 80 0 0.24178f
c12 76 0 0.215087f
c13 72 0 0.24208f
c14 68 0 0.222485f
c15 65 0 0.0234646f
c16 64 0 0.0707081f
c17 63 0 0.592753f
c18 61 0 0.590393f
c19 59 0 0.0291317f
c20 58 0 0.0677282f
c21 56 0 0.244904f
c22 52 0 0.222158f
c23 48 0 0.24208f
c24 44 0 0.228748f
c25 41 0 0.0231451f
c26 40 0 0.0713036f
c27 39 0 0.595778f
c28 36 0 0.50235f
c29 35 0 0.0177371f
c30 34 0 0.0267745f
c31 32 0 0.0613325f
c32 31 0 0.443207f
c33 30 0 0.0451636f
c34 27 0 0.0608211f
c35 26 0 0.74385f
c36 25 0 0.0271103f
c37 22 0 0.0750242f
c38 20 0 0.0838772f
r39 103 105 3.58475
r40 103 123 13.2552
r41 101 103 4.95763
r42 98 100 4.94088
r43 98 118 13.2552
r44 96 98 3.57264
r45 93 95 3.58475
r46 93 113 13.2552
r47 91 93 4.95763
r48 88 90 5.33759
r49 88 108 13.2552
r50 86 88 3.85949
r51 84 105 5.78538
r52 84 85 198.25
r53 82 85 5.02856
r54 82 83 19
r55 78 83 5.02856
r56 78 80 72.5
r57 74 101 5.78538
r58 74 76 62.25
r59 70 72 72.5
r60 66 100 5.80131
r61 66 68 62.25
r62 64 70 5.02856
r63 64 65 19
r64 63 65 5.02856
r65 62 96 5.80131
r66 62 63 198.25
r67 60 95 5.78538
r68 60 61 198.25
r69 58 61 5.02856
r70 58 59 19
r71 54 59 5.02856
r72 54 56 72.5
r73 50 91 5.78538
r74 50 52 62.25
r75 46 48 72.5
r76 42 90 5.43974
r77 42 44 64.75
r78 40 46 5.02856
r79 40 41 19
r80 39 41 5.02856
r81 38 86 5.43974
r82 38 39 198.25
r83 35 123 8
r84 34 36 0.0487391
r85 34 35 8
r86 32 36 1.677
r87 30 118 8
r88 29 32 0.0487391
r89 29 31 0.0487391
r90 29 30 8
r91 27 31 1.0218
r92 25 113 8
r93 24 27 0.0487391
r94 24 26 0.0487391
r95 24 25 8
r96 20 108 8
r97 19 22 0.0487391
r98 19 20 8
r99 13 26 0.7488
r100 13 22 0.9282
.ends

.subckt PM_DECODER_D 10 14 18 24 28 32 46 50 54 58 81
c0 88 0 0.00884796f
c1 87 0 0.0655326f
c2 86 0 0.096151f
c3 78 0 0.0500515f
c4 77 0 0.0258797f
c5 76 0 0.022069f
c6 75 0 0.0171544f
c7 74 0 0.0159869f
c8 73 0 0.0236643f
c9 72 0 0.0221658f
c10 69 0 0.102513f
c11 64 0 0.0996858f
c12 62 0 0.0903023f
c13 58 0 0.327442f
c14 54 0 0.0888145f
c15 50 0 0.0783317f
c16 46 0 0.346743f
c17 42 0 0.106487f
c18 40 0 0.106444f
c19 39 0 0.261844f
c20 36 0 0.105293f
c21 34 0 0.0970309f
c22 32 0 0.328132f
c23 28 0 0.0885185f
c24 24 0 0.080011f
c25 21 0 0.0781293f
c26 18 0 0.20503f
c27 14 0 0.237972f
c28 10 0 0.115759f
c29 2 0 0.68068f
r30 87 88 0.0488691
r31 86 87 8
r32 78 81 0.01495
r33 69 86 13.2552
r34 66 69 6.2234
r35 62 81 8
r36 61 64 6.2234
r37 61 62 13.2552
r38 56 77 3.81101
r39 56 58 111.25
r40 52 77 3.81101
r41 52 54 26.5
r42 48 76 3.81101
r43 48 50 22.5
r44 44 76 3.81101
r45 44 46 115.25
r46 43 75 3.81101
r47 42 77 0.990414
r48 42 43 45.25
r49 41 74 3.81101
r50 40 76 0.990414
r51 40 41 45.25
r52 39 75 0.990414
r53 38 74 0.990414
r54 38 39 130
r55 37 73 0.990414
r56 36 75 3.81101
r57 36 37 44.75
r58 35 72 0.990414
r59 34 74 3.81101
r60 34 35 44.75
r61 30 73 3.81101
r62 30 32 111.25
r63 26 73 3.81101
r64 26 28 26.5
r65 22 72 3.81101
r66 22 24 22.5
r67 21 72 3.81101
r68 20 66 4.73303
r69 20 21 28.75
r70 16 66 4.73303
r71 16 18 63
r72 12 64 4.73303
r73 12 14 85
r74 8 64 4.73303
r75 8 10 38.25
r76 4 88 0.0598
r77 3 78 0.0255799
r78 2 4 0.0363174
r79 2 3 1.5184
.ends

.subckt PM_DECODER_~B 16 21 34 40 44 48 58 64 68 72
c0 100 0 0.0778378f
c1 99 0 0.0896588f
c2 95 0 0.0992231f
c3 94 0 0.0926555f
c4 91 0 0.0121686f
c5 90 0 0.0835934f
c6 87 0 0.0170318f
c7 86 0 0.0156533f
c8 82 0 0.0883449f
c9 80 0 0.0144028f
c10 79 0 0.0156533f
c11 75 0 0.0884807f
c12 72 0 0.378284f
c13 68 0 0.075594f
c14 64 0 0.0744035f
c15 61 0 0.0479714f
c16 58 0 0.271019f
c17 55 0 0.0315243f
c18 54 0 0.0750661f
c19 53 0 0.0339003f
c20 52 0 0.0722666f
c21 51 0 0.324593f
c22 48 0 0.380442f
c23 44 0 0.0740755f
c24 40 0 0.0744035f
c25 37 0 0.0479714f
c26 34 0 0.27074f
c27 31 0 0.0315243f
c28 30 0 0.0750576f
c29 29 0 0.0339657f
c30 28 0 0.0722666f
c31 27 0 0.324593f
c32 24 0 0.518235f
c33 12 0 0.0163275f
c34 11 0 0.151728f
c35 8 0 1.16215f
c36 7 0 0.151728f
c37 5 0 0.0233465f
c38 4 0 0.328629f
r39 100 102 0.0486091
r40 99 100 8
r41 95 97 0.0486091
r42 94 95 8
r43 90 91 0.0488691
r44 82 85 8.05107
r45 82 84 8.08937
r46 82 99 13.2552
r47 75 78 8.05107
r48 75 77 8.08937
r49 75 94 13.2552
r50 70 87 3.81101
r51 70 72 115.25
r52 66 87 3.81101
r53 66 68 22.5
r54 62 86 3.81101
r55 62 64 22.5
r56 61 86 3.81101
r57 61 85 20.25
r58 58 84 71.5
r59 54 87 0.990414
r60 54 55 32
r61 52 86 0.990414
r62 52 53 32
r63 51 55 5.02856
r64 50 53 5.02856
r65 50 51 126
r66 46 80 3.81101
r67 46 48 115.25
r68 42 80 3.81101
r69 42 44 22.5
r70 38 79 3.81101
r71 38 40 22.5
r72 37 79 3.81101
r73 37 78 20.25
r74 34 77 71.5
r75 30 80 0.990414
r76 30 31 32
r77 28 79 0.990414
r78 28 29 32
r79 27 31 5.02856
r80 26 29 5.02856
r81 26 27 126
r82 24 90 8
r83 23 24 16.3327
r84 21 23 4.59
r85 19 24 0.529
r86 18 19 8.16635
r87 16 18 2.295
r88 11 102 0.5499
r89 9 12 0.0275239
r90 8 11 0.0363174
r91 8 9 2.8938
r92 7 12 0.00715299
r93 7 97 0.5499
r94 4 12 0.0275239
r95 4 5 0.8957
r96 2 5 0.0363174
r97 2 91 0.0663
.ends

.subckt PM_DECODER_~C 13 18 25 29 33 37 41 45 49 53
c0 105 0 0.30939f
c1 103 0 0.0551175f
c2 99 0 0.226979f
c3 97 0 0.0546167f
c4 88 0 1.28983f
c5 87 0 0.0622964f
c6 84 0 0.0772338f
c7 83 0 0.858646f
c8 79 0 0.0731529f
c9 72 0 0.0816597f
c10 71 0 0.091233f
c11 66 0 0.091233f
c12 62 0 0.0765569f
c13 61 0 0.091233f
c14 56 0 0.0911613f
c15 53 0 0.336768f
c16 49 0 0.109907f
c17 45 0 0.329988f
c18 41 0 0.110742f
c19 37 0 0.337159f
c20 33 0 0.110504f
c21 29 0 0.321774f
c22 25 0 0.118578f
c23 21 0 0.496964f
r24 103 105 0.855217
r25 97 99 0.855217
r26 87 88 0.0487391
r27 86 103 0.0556043
r28 86 87 8
r29 84 88 2.8288
r30 82 84 0.0487391
r31 82 83 0.0487391
r32 81 97 0.0556043
r33 81 82 8
r34 79 83 1.6718
r35 77 79 0.0487391
r36 76 77 8
r37 72 105 0.0556043
r38 71 74 8.05107
r39 71 73 8.08937
r40 71 72 13.2552
r41 66 69 8.05107
r42 66 68 8.08937
r43 66 86 13.2552
r44 62 99 0.0556043
r45 61 64 8.05107
r46 61 63 8.08937
r47 61 62 13.2552
r48 56 59 8.05107
r49 56 58 8.08937
r50 56 81 13.2552
r51 53 74 96.75
r52 49 73 26.5
r53 45 69 96.75
r54 41 68 26.5
r55 37 64 96.75
r56 33 63 26.5
r57 29 59 93.5
r58 25 58 29.75
r59 21 76 0.169
r60 20 21 16.3327
r61 18 20 4.59
r62 16 76 0.36
r63 15 16 8.16635
r64 13 15 2.295
.ends

.subckt PM_DECODER_~D 8 13 20 26 30 34 48 52 56 60
c0 82 0 0.0385998f
c1 81 0 0.0651669f
c2 80 0 0.0945751f
c3 78 0 0.0486091f
c4 73 0 0.0227294f
c5 72 0 0.022069f
c6 71 0 0.016425f
c7 70 0 0.0159869f
c8 69 0 0.0227294f
c9 68 0 0.0221658f
c10 65 0 0.102763f
c11 60 0 0.327368f
c12 56 0 0.0868066f
c13 52 0 0.0783317f
c14 48 0 0.335517f
c15 44 0 0.107129f
c16 42 0 0.106444f
c17 41 0 0.254857f
c18 38 0 0.105944f
c19 36 0 0.096631f
c20 34 0 0.327113f
c21 30 0 0.087072f
c22 26 0 0.080011f
c23 23 0 0.0741898f
c24 20 0 0.200458f
c25 11 0 0.519965f
c26 2 0 1.13801f
r27 81 82 0.0488691
r28 80 81 8
r29 76 78 0.0487391
r30 75 76 8
r31 65 80 13.2552
r32 62 65 6.2234
r33 58 73 3.81101
r34 58 60 111.25
r35 54 73 3.81101
r36 54 56 26.5
r37 50 72 3.81101
r38 50 52 22.5
r39 46 72 3.81101
r40 46 48 115.25
r41 45 71 3.81101
r42 44 73 0.990414
r43 44 45 45.25
r44 43 70 3.81101
r45 42 72 0.990414
r46 42 43 45.25
r47 41 71 0.990414
r48 40 70 0.990414
r49 40 41 130
r50 39 69 0.990414
r51 38 71 3.81101
r52 38 39 44.75
r53 37 68 0.990414
r54 36 70 3.81101
r55 36 37 44.75
r56 32 69 3.81101
r57 32 34 111.25
r58 28 69 3.81101
r59 28 30 26.5
r60 24 68 3.81101
r61 24 26 22.5
r62 23 68 3.81101
r63 22 62 4.73303
r64 22 23 27.25
r65 18 62 4.73303
r66 18 20 64.5
r67 16 75 0.586
r68 15 16 16.3327
r69 13 15 4.59
r70 11 75 0.051
r71 10 11 8.16635
r72 8 10 2.295
r73 4 82 0.3055
r74 2 4 0.0363174
r75 2 78 4.303
.ends

.subckt PM_DECODER_B 11 15 19 23 27 33 43 47 51 57 90
c0 99 0 0.046732f
c1 96 0 0.0640555f
c2 95 0 1.02952f
c3 85 0 0.0847754f
c4 84 0 0.0147281f
c5 83 0 0.0147281f
c6 81 0 0.0738233f
c7 80 0 0.0900188f
c8 79 0 0.0873367f
c9 77 0 0.0169527f
c10 76 0 0.0162392f
c11 74 0 0.0753403f
c12 73 0 0.0963631f
c13 72 0 0.0873367f
c14 69 0 0.0990168f
c15 67 0 0.0866266f
c16 64 0 0.323103f
c17 61 0 0.102441f
c18 59 0 0.108817f
c19 57 0 0.235546f
c20 51 0 0.0765601f
c21 47 0 0.0763176f
c22 43 0 0.3786f
c23 40 0 0.332082f
c24 37 0 0.104957f
c25 35 0 0.110523f
c26 33 0 0.235546f
c27 27 0 0.0786231f
c28 23 0 0.0764051f
c29 19 0 0.390096f
c30 15 0 0.141823f
c31 11 0 0.219581f
c32 4 0 1.00687f
r33 99 101 0.01612
r34 94 96 0.0487391
r35 94 95 0.0487391
r36 85 90 0.01638
r37 80 99 8
r38 79 82 8.05107
r39 79 81 8.08937
r40 79 80 13.2552
r41 73 94 8
r42 72 75 8.05107
r43 72 74 8.08937
r44 72 73 13.2552
r45 67 90 8
r46 66 69 6.2234
r47 66 67 13.2552
r48 63 64 126
r49 62 84 0.990414
r50 61 64 5.02856
r51 61 62 31.5
r52 60 83 0.990414
r53 59 63 5.02856
r54 59 60 31.5
r55 57 82 61.25
r56 53 84 3.81101
r57 53 81 30.5
r58 49 84 3.81101
r59 49 51 22.5
r60 45 83 3.81101
r61 45 47 22.5
r62 41 83 3.81101
r63 41 43 115.25
r64 39 40 126
r65 38 77 0.990414
r66 37 40 5.02856
r67 37 38 32
r68 36 76 0.990414
r69 35 39 5.02856
r70 35 36 32
r71 33 75 61.25
r72 29 77 3.81101
r73 29 74 30.5
r74 25 77 3.81101
r75 25 27 22.5
r76 21 76 3.81101
r77 21 23 22.5
r78 17 76 3.81101
r79 17 19 115.25
r80 13 69 4.73303
r81 13 15 48.75
r82 9 69 4.73303
r83 9 11 74
r84 4 101 0.0255799
r85 4 96 2.8327
r86 3 85 0.0255799
r87 3 95 2.3556
.ends

.subckt PM_DECODER_O5 2 7 15
c0 5 0 0.600705f
c1 2 0 0.00656647f
r2 10 15 0.2652
r3 9 10 16.3327
r4 7 9 4.59
r5 5 15 0.3718
r6 4 5 8.16635
r7 2 4 2.295
.ends

.subckt PM_DECODER_O7 2 7 15
c0 10 0 0.59325f
r1 10 15 0.2918
r2 9 10 16.3327
r3 7 9 4.59
r4 5 15 0.2392
r5 4 5 8.16635
r6 2 4 2.295
.ends

.subckt PM_DECODER_NET0111 18 23 24 28 33 40 44
c0 61 0 0.14054f
c1 50 0 0.133633f
c2 49 0 0.123182f
c3 44 0 0.103761f
c4 40 0 0.276649f
c5 36 0 0.0974657f
c6 33 0 6.0148e-19
c7 31 0 0.178621f
c8 30 0 0.00685122f
c9 27 0 0.232625f
c10 23 0 0.00750454f
c11 21 0 0.213466f
c12 18 0 0.00656647f
c13 16 0 0.0256598f
c14 13 0 0.0453199f
c15 10 0 0.208275f
c16 8 0 0.147961f
c17 6 0 0.167927f
c18 5 0 0.05479f
c19 4 0 0.049744f
r20 50 62 0.01456
r21 50 61 0.0536443
r22 49 50 13.2552
r23 46 49 6.2234
r24 42 46 4.73303
r25 42 44 26.25
r26 38 46 4.73303
r27 38 40 97
r28 35 36 16.3327
r29 33 35 4.59
r30 30 31 8.16635
r31 28 30 2.295
r32 26 27 8.16635
r33 24 26 2.295
r34 23 26 2.295
r35 20 21 8.16635
r36 18 20 2.295
r37 17 31 0.2008
r38 15 27 0.2008
r39 15 16 0.000663774
r40 14 36 0.1052
r41 12 21 0.2008
r42 12 13 0.000663774
r43 11 16 0.0413841
r44 10 17 0.0413287
r45 10 11 0.313478
r46 9 13 0.0413841
r47 8 16 0.0413841
r48 8 9 0.313478
r49 7 62 0.0304098
r50 6 14 0.0413287
r51 6 7 0.321087
r52 4 13 0.0413841
r53 4 5 0.150652
r54 2 5 0.039111
r55 2 61 0.295217
.ends

.subckt PM_DECODER_NET070 18 23 24 28 33 40 44
c0 60 0 0.134331f
c1 49 0 0.121356f
c2 44 0 0.271099f
c3 40 0 0.104668f
c4 36 0 0.0974965f
c5 31 0 0.167233f
c6 27 0 0.222907f
c7 21 0 0.203497f
c8 16 0 0.0183934f
c9 13 0 0.011702f
c10 10 0 0.173068f
c11 8 0 0.11451f
c12 6 0 0.126025f
c13 5 0 0.0547519f
c14 4 0 0.0399218f
c15 3 0 0.127509f
r16 50 63 0.0533643
r17 50 60 0.01484
r18 49 50 13.2552
r19 46 49 6.2234
r20 42 46 4.73303
r21 42 44 97
r22 38 46 4.73303
r23 38 40 26.25
r24 35 36 16.3327
r25 33 35 4.59
r26 30 31 8.16635
r27 28 30 2.295
r28 26 27 8.16635
r29 24 26 2.295
r30 23 26 2.295
r31 20 21 8.16635
r32 18 20 2.295
r33 17 31 0.0952
r34 15 27 0.0952
r35 15 16 0.000663774
r36 14 36 0.1048
r37 12 21 0.0952
r38 12 13 0.000663774
r39 11 16 0.0413841
r40 10 17 0.0413287
r41 10 11 0.313478
r42 9 13 0.0413841
r43 8 16 0.0413841
r44 8 9 0.313478
r45 7 60 0.0304098
r46 6 14 0.0413287
r47 6 7 0.321087
r48 4 13 0.0413841
r49 4 5 0.150652
r50 3 5 0.039111
r51 3 63 0.295217
.ends

.subckt PM_DECODER_NET0143 18 23 24 28 33 40 44
c0 61 0 0.140417f
c1 50 0 0.122183f
c2 48 0 0.131849f
c3 44 0 0.103761f
c4 40 0 0.280423f
c5 36 0 0.093359f
c6 31 0 0.213757f
c7 30 0 0.00719965f
c8 27 0 0.226571f
c9 23 0 0.0110119f
c10 21 0 0.172405f
c11 18 0 0.0096354f
c12 17 0 0.0488067f
c13 14 0 0.0184238f
c14 8 0 0.0995667f
c15 7 0 0.0351529f
c16 6 0 0.119689f
c17 4 0 0.124546f
c18 3 0 0.0355647f
c19 2 0 0.137974f
r20 48 62 0.01456
r21 48 61 0.0536443
r22 47 50 6.2234
r23 47 48 13.2552
r24 42 50 4.73303
r25 42 44 26.25
r26 38 50 4.73303
r27 38 40 97
r28 35 36 16.3327
r29 33 35 4.59
r30 30 31 8.16635
r31 28 30 2.295
r32 26 27 8.16635
r33 24 26 2.295
r34 23 26 2.295
r35 20 21 8.16635
r36 18 20 2.295
r37 16 31 0.2008
r38 16 17 0.000663774
r39 15 36 0.1052
r40 13 27 0.2008
r41 13 14 0.000663774
r42 12 21 0.2008
r43 10 61 0.295217
r44 9 17 0.0413841
r45 8 10 0.039111
r46 8 9 0.150652
r47 7 15 0.0413287
r48 6 62 0.0304098
r49 6 7 0.321087
r50 5 14 0.0413841
r51 4 17 0.0413841
r52 4 5 0.313478
r53 3 12 0.0413287
r54 2 14 0.0413841
r55 2 3 0.313478
.ends

.subckt PM_DECODER_NET0107 18 23 24 28 33 40 44
c0 60 0 0.136048f
c1 50 0 0.122866f
c2 44 0 0.269748f
c3 40 0 0.104482f
c4 36 0 0.0994199f
c5 31 0 0.203497f
c6 27 0 0.222907f
c7 21 0 0.167233f
c8 17 0 0.011702f
c9 14 0 0.0240782f
c10 11 0 0.125888f
c11 8 0 0.0946736f
c12 7 0 0.0425113f
c13 6 0 0.105259f
c14 4 0 0.146298f
c15 3 0 0.0357782f
c16 2 0 0.136619f
r17 48 63 0.0533643
r18 48 60 0.01484
r19 47 50 6.2234
r20 47 48 13.2552
r21 42 50 4.73303
r22 42 44 97
r23 38 50 4.73303
r24 38 40 26.25
r25 35 36 16.3327
r26 33 35 4.59
r27 30 31 8.16635
r28 28 30 2.295
r29 26 27 8.16635
r30 24 26 2.295
r31 23 26 2.295
r32 20 21 8.16635
r33 18 20 2.295
r34 16 31 0.0952
r35 16 17 0.000663774
r36 15 36 0.1048
r37 13 27 0.0952
r38 13 14 0.000663774
r39 12 21 0.0952
r40 11 63 0.295217
r41 9 17 0.0413841
r42 8 11 0.039111
r43 8 9 0.150652
r44 7 15 0.0413287
r45 6 60 0.0304098
r46 6 7 0.321087
r47 5 14 0.0413841
r48 4 17 0.0413841
r49 4 5 0.313478
r50 3 12 0.0413287
r51 2 14 0.0413841
r52 2 3 0.313478
.ends

.subckt PM_DECODER_O1 2 7 15
c0 5 0 0.598059f
c1 4 0 0.0096354f
r2 10 15 0.2332
r3 9 10 16.3327
r4 7 9 4.59
r5 5 15 0.4038
r6 4 5 8.16635
r7 2 4 2.295
.ends

.subckt PM_DECODER_O3 2 7 15
c0 10 0 0.594592f
r1 10 15 0.2858
r2 9 10 16.3327
r3 7 9 4.59
r4 5 15 0.2452
r5 4 5 8.16635
r6 2 4 2.295
.ends

.subckt PM_DECODER_O6 2 7 15
c0 5 0 0.598077f
c1 2 0 0.0096354f
r2 10 15 0.2592
r3 9 10 16.3327
r4 7 9 4.59
r5 5 15 0.3778
r6 4 5 8.16635
r7 2 4 2.295
.ends

.subckt PM_DECODER_O8 2 7 15
c0 10 0 0.59459f
r1 10 15 0.2568
r2 9 10 16.3327
r3 7 9 4.59
r4 5 15 0.2742
r5 4 5 8.16635
r6 2 4 2.295
.ends

.subckt PM_DECODER_NET067 18 23 24 28 33 40 44
c0 61 0 0.142288f
c1 50 0 0.131884f
c2 49 0 0.122183f
c3 44 0 0.103761f
c4 40 0 0.280423f
c5 36 0 0.0974664f
c6 33 0 6.0148e-19
c7 31 0 0.171601f
c8 30 0 0.00340137f
c9 27 0 0.228045f
c10 23 0 0.00892569f
c11 21 0 0.213759f
c12 18 0 0.00701229f
c13 16 0 0.0214984f
c14 13 0 0.0488067f
c15 10 0 0.209842f
c16 8 0 0.141545f
c17 6 0 0.166295f
c18 5 0 0.0550625f
c19 4 0 0.0452913f
r20 50 62 0.01456
r21 50 61 0.0536443
r22 49 50 13.2552
r23 46 49 6.2234
r24 42 46 4.73303
r25 42 44 26.25
r26 38 46 4.73303
r27 38 40 97
r28 35 36 16.3327
r29 33 35 4.59
r30 30 31 8.16635
r31 28 30 2.295
r32 26 27 8.16635
r33 24 26 2.295
r34 23 26 2.295
r35 20 21 8.16635
r36 18 20 2.295
r37 17 31 0.2008
r38 15 27 0.2008
r39 15 16 0.000663774
r40 14 36 0.1052
r41 12 21 0.2008
r42 12 13 0.000663774
r43 11 16 0.0413841
r44 10 17 0.0413287
r45 10 11 0.313478
r46 9 13 0.0413841
r47 8 16 0.0413841
r48 8 9 0.313478
r49 7 62 0.0304098
r50 6 14 0.0413287
r51 6 7 0.321087
r52 4 13 0.0413841
r53 4 5 0.150652
r54 2 5 0.039111
r55 2 61 0.295217
.ends

.subckt PM_DECODER_NET18 18 23 24 28 33 40 44
c0 60 0 0.136049f
c1 49 0 0.122866f
c2 44 0 0.269748f
c3 40 0 0.104482f
c4 36 0 0.0994609f
c5 31 0 0.167233f
c6 27 0 0.222907f
c7 21 0 0.203497f
c8 16 0 0.0183934f
c9 13 0 0.011702f
c10 10 0 0.17141f
c11 8 0 0.11451f
c12 6 0 0.143544f
c13 5 0 0.0547519f
c14 4 0 0.0399218f
c15 3 0 0.124295f
r16 50 63 0.0533643
r17 50 60 0.01484
r18 49 50 13.2552
r19 46 49 6.2234
r20 42 46 4.73303
r21 42 44 97
r22 38 46 4.73303
r23 38 40 26.25
r24 35 36 16.3327
r25 33 35 4.59
r26 30 31 8.16635
r27 28 30 2.295
r28 26 27 8.16635
r29 24 26 2.295
r30 23 26 2.295
r31 20 21 8.16635
r32 18 20 2.295
r33 17 31 0.0952
r34 15 27 0.0952
r35 15 16 0.000663774
r36 14 36 0.1048
r37 12 21 0.0952
r38 12 13 0.000663774
r39 11 16 0.0413841
r40 10 17 0.0413287
r41 10 11 0.313478
r42 9 13 0.0413841
r43 8 16 0.0413841
r44 8 9 0.313478
r45 7 60 0.0304098
r46 6 14 0.0413287
r47 6 7 0.321087
r48 4 13 0.0413841
r49 4 5 0.150652
r50 3 5 0.039111
r51 3 63 0.295217
.ends

.subckt PM_DECODER_NET0145 18 23 24 28 33 40 44
c0 61 0 0.135101f
c1 50 0 0.11839f
c2 48 0 0.1223f
c3 44 0 0.101045f
c4 40 0 0.259489f
c5 36 0 0.0932907f
c6 31 0 0.203497f
c7 27 0 0.222908f
c8 21 0 0.167344f
c9 17 0 0.0488067f
c10 14 0 0.0184238f
c11 8 0 0.0959117f
c12 7 0 0.0313523f
c13 6 0 0.112016f
c14 4 0 0.123157f
c15 3 0 0.035566f
c16 2 0 0.136585f
r17 48 62 0.01456
r18 48 61 0.0536443
r19 47 50 6.2234
r20 47 48 13.2552
r21 42 50 4.73303
r22 42 44 26.25
r23 38 50 4.73303
r24 38 40 97
r25 35 36 16.3327
r26 33 35 4.59
r27 30 31 8.16635
r28 28 30 2.295
r29 26 27 8.16635
r30 24 26 2.295
r31 23 26 2.295
r32 20 21 8.16635
r33 18 20 2.295
r34 16 31 0.2008
r35 16 17 0.000663774
r36 15 36 0.1052
r37 13 27 0.2008
r38 13 14 0.000663774
r39 12 21 0.2008
r40 10 61 0.295217
r41 9 17 0.0413841
r42 8 10 0.039111
r43 8 9 0.150652
r44 7 15 0.0413287
r45 6 62 0.0304098
r46 6 7 0.321087
r47 5 14 0.0413841
r48 4 17 0.0413841
r49 4 5 0.313478
r50 3 12 0.0413287
r51 2 14 0.0413841
r52 2 3 0.313478
.ends

.subckt PM_DECODER_NET0109 18 23 24 28 33 40 44
c0 60 0 0.122426f
c1 50 0 0.118397f
c2 44 0 0.259325f
c3 40 0 0.101287f
c4 36 0 0.0960148f
c5 31 0 0.203497f
c6 27 0 0.222907f
c7 21 0 0.167233f
c8 17 0 0.00967401f
c9 14 0 0.0240782f
c10 11 0 0.1197f
c11 8 0 0.0918171f
c12 7 0 0.0358974f
c13 6 0 0.0824537f
c14 4 0 0.142886f
c15 3 0 0.0352569f
c16 2 0 0.136153f
r17 48 63 0.0533643
r18 48 60 0.01484
r19 47 50 6.2234
r20 47 48 13.2552
r21 42 50 4.73303
r22 42 44 97
r23 38 50 4.73303
r24 38 40 26.25
r25 35 36 16.3327
r26 33 35 4.59
r27 30 31 8.16635
r28 28 30 2.295
r29 26 27 8.16635
r30 24 26 2.295
r31 23 26 2.295
r32 20 21 8.16635
r33 18 20 2.295
r34 16 31 0.0952
r35 16 17 0.000663774
r36 15 36 0.1048
r37 13 27 0.0952
r38 13 14 0.000663774
r39 12 21 0.0952
r40 11 63 0.295217
r41 9 17 0.0413841
r42 8 11 0.039111
r43 8 9 0.150652
r44 7 15 0.0413287
r45 6 60 0.0304098
r46 6 7 0.321087
r47 5 14 0.0413841
r48 4 17 0.0413841
r49 4 5 0.313478
r50 3 12 0.0413287
r51 2 14 0.0413841
r52 2 3 0.313478
.ends

.subckt PM_DECODER_VSS 6 107 112 117 122 127 132 137 142 147 152 157 162 167 172
+ 177 182 187 192 197 288
c0 282 0 0.107626f
c1 279 0 0.255876f
c2 276 0 0.309151f
c3 272 0 0.219377f
c4 269 0 0.289727f
c5 266 0 0.322728f
c6 262 0 0.21128f
c7 259 0 0.110472f
c8 202 0 0.0907291f
c9 200 0 0.136187f
c10 195 0 0.140459f
c11 190 0 0.0808274f
c12 185 0 0.082594f
c13 180 0 0.0809469f
c14 175 0 0.0819677f
c15 170 0 0.153579f
c16 165 0 0.139586f
c17 160 0 0.154054f
c18 155 0 0.139491f
c19 150 0 0.0943804f
c20 145 0 0.0838487f
c21 140 0 0.0990054f
c22 135 0 0.0841619f
c23 130 0 0.154552f
c24 125 0 0.139596f
c25 120 0 0.0972092f
c26 115 0 0.0951985f
c27 110 0 0.138724f
c28 107 0 0.0166798f
c29 84 0 0.00825891f
c30 44 0 0.00825891f
c31 14 0 0.00646755f
c32 4 0 0.123277f
c33 2 0 0.133986f
r34 266 288 0.035
r35 220 288 0.035
r36 217 288 0.035
r37 200 256 0.1252
r38 199 200 16.3327
r39 197 199 4.59
r40 195 253 0.1348
r41 194 195 16.3327
r42 192 194 4.59
r43 190 250 0.1252
r44 189 190 16.3327
r45 187 189 4.59
r46 185 247 0.1348
r47 184 185 16.3327
r48 182 184 4.59
r49 180 244 0.1252
r50 179 180 16.3327
r51 177 179 4.59
r52 175 241 0.1348
r53 174 175 16.3327
r54 172 174 4.59
r55 170 238 0.1252
r56 169 170 16.3327
r57 167 169 4.59
r58 165 235 0.1348
r59 164 165 16.3327
r60 162 164 4.59
r61 160 232 0.1252
r62 159 160 16.3327
r63 157 159 4.59
r64 155 229 0.1348
r65 154 155 16.3327
r66 152 154 4.59
r67 150 226 0.1252
r68 149 150 16.3327
r69 147 149 4.59
r70 145 223 0.1348
r71 144 145 16.3327
r72 142 144 4.59
r73 140 220 0.1252
r74 139 140 16.3327
r75 137 139 4.59
r76 135 217 0.1348
r77 134 135 16.3327
r78 132 134 4.59
r79 130 214 0.1252
r80 129 130 16.3327
r81 127 129 4.59
r82 125 211 0.1348
r83 124 125 16.3327
r84 122 124 4.59
r85 120 208 0.1272
r86 119 120 16.3327
r87 117 119 4.59
r88 115 205 0.1348
r89 114 115 16.3327
r90 112 114 4.59
r91 110 202 0.1272
r92 109 110 16.3327
r93 107 109 4.59
r94 105 282 0.099
r95 104 105 16.3327
r96 99 253 0.035
r97 99 256 0.035
r98 99 279 0.035
r99 99 282 0.035
r100 98 99 16.3327
r101 95 279 0.395
r102 95 280 0.241
r103 94 95 5.44423
r104 89 247 0.035
r105 89 250 0.035
r106 89 280 0.035
r107 88 89 16.3327
r108 85 241 0.035
r109 85 244 0.035
r110 85 276 0.035
r111 84 85 16.3327
r112 79 276 0.241
r113 79 277 0.395
r114 78 79 5.44423
r115 75 235 0.035
r116 75 238 0.035
r117 75 272 0.035
r118 75 277 0.035
r119 74 75 16.3327
r120 69 272 0.1
r121 68 69 16.3327
r122 65 69 0.301
r123 65 273 0.099
r124 64 65 16.3327
r125 59 229 0.035
r126 59 232 0.035
r127 59 269 0.035
r128 59 273 0.035
r129 58 59 16.3327
r130 55 269 0.395
r131 55 270 0.241
r132 54 55 5.44423
r133 49 223 0.035
r134 49 226 0.035
r135 49 270 0.035
r136 48 49 16.3327
r137 44 288 16.3327
r138 39 266 0.241
r139 39 267 0.395
r140 38 39 5.44423
r141 35 211 0.035
r142 35 214 0.035
r143 35 262 0.035
r144 35 267 0.035
r145 34 35 16.3327
r146 29 262 0.1
r147 28 29 16.3327
r148 25 29 0.297
r149 25 263 0.103
r150 24 25 16.3327
r151 19 205 0.035
r152 19 208 0.035
r153 19 259 0.035
r154 19 263 0.035
r155 18 19 16.3327
r156 15 259 0.259
r157 15 260 0.103
r158 14 15 16.3327
r159 9 202 0.0195555
r160 9 260 0.0195555
r161 8 9 16.3327
r162 6 104 6.2234
r163 6 98 6.60638
r164 6 94 6.60638
r165 6 88 19.8191
r166 6 84 19.8191
r167 6 78 6.60638
r168 6 74 6.60638
r169 6 68 6.31915
r170 6 64 6.2234
r171 6 58 6.60638
r172 6 54 6.60638
r173 6 48 19.8191
r174 6 44 19.8191
r175 6 38 6.60638
r176 6 34 6.60638
r177 6 28 6.31915
r178 6 24 6.46875
r179 6 18 6.46875
r180 6 14 6.46875
r181 6 8 6.46875
r182 5 85 0.035
r183 4 89 0.035
r184 4 5 0.224
r185 3 288 0.035
r186 2 49 0.035
r187 2 3 0.224
.ends

.subckt PM_DECODER_VDD 16 17 18 23 28 33 38 43 44 48 49 53 54 58 59 63 64 68 69
+ 73 74 78 79 83 88 93 98 103 104 108 109 113 114 118 119 123 124 128 129 133
+ 134 138 139 143 148 366
c0 423 0 0.0406356f
c1 420 0 0.0407959f
c2 417 0 0.0409374f
c3 414 0 0.0415869f
c4 410 0 0.144821f
c5 406 0 0.150658f
c6 403 0 0.040934f
c7 400 0 0.0421305f
c8 397 0 0.0406442f
c9 394 0 0.041935f
c10 391 0 0.0406442f
c11 388 0 0.041935f
c12 385 0 0.0409374f
c13 382 0 0.0421288f
c14 378 0 0.148782f
c15 374 0 0.151887f
c16 371 0 0.040934f
c17 368 0 0.0421305f
c18 363 0 0.0406442f
c19 360 0 0.0419339f
c20 357 0 0.134506f
c21 354 0 0.13754f
c22 351 0 0.107397f
c23 349 0 0.0793835f
c24 328 0 0.0793835f
c25 151 0 0.213197f
c26 146 0 0.213197f
c27 142 0 0.236623f
c28 137 0 0.237605f
c29 132 0 0.239289f
c30 127 0 0.240108f
c31 122 0 0.239289f
c32 117 0 0.250676f
c33 113 0 0.00981373f
c34 112 0 0.236792f
c35 107 0 0.243989f
c36 103 0 0.00959965f
c37 101 0 0.210858f
c38 96 0 0.216668f
c39 95 0 0.0096354f
c40 91 0 0.210858f
c41 86 0 0.216668f
c42 83 0 0.0096354f
c43 82 0 0.2369f
c44 77 0 0.242351f
c45 73 0 0.0110119f
c46 72 0 0.239289f
c47 67 0 0.244848f
c48 63 0 0.0110119f
c49 62 0 0.239295f
c50 57 0 0.249146f
c51 53 0 0.00750454f
c52 52 0 0.236792f
c53 47 0 0.246702f
c54 43 0 0.00750454f
c55 41 0 0.210858f
c56 36 0 0.220972f
c57 35 0 0.00656647f
c58 31 0 0.16373f
c59 26 0 0.156437f
c60 21 0 0.128627f
c61 10 0 0.134124f
c62 8 0 0.137027f
c63 7 0 0.0223669f
c64 6 0 0.035191f
c65 5 0 0.0223669f
c66 4 0 0.20606f
c67 3 0 0.759739f
r68 364 366 0.077
r69 349 478 0.00770322
r70 349 423 0.0296412
r71 348 349 16.3327
r72 346 423 0.117
r73 346 424 0.105
r74 345 348 14.5532
r75 345 346 16.3327
r76 342 474 0.00770322
r77 342 417 0.0296412
r78 342 424 0.0296412
r79 339 417 0.103
r80 339 418 0.103
r81 338 339 16.3327
r82 336 470 0.00770322
r83 336 410 0.0296412
r84 336 418 0.0296412
r85 335 338 13.2128
r86 335 336 16.3327
r87 332 410 0.103
r88 331 335 13.2128
r89 331 332 16.3327
r90 328 476 0.00770322
r91 328 420 0.0296412
r92 327 328 16.3327
r93 325 420 0.117
r94 325 421 0.105
r95 324 327 14.5532
r96 324 325 16.3327
r97 321 472 0.00770322
r98 321 414 0.0296412
r99 321 421 0.0296412
r100 318 414 0.103
r101 318 415 0.103
r102 317 318 16.3327
r103 315 468 0.00770322
r104 315 406 0.0296412
r105 315 415 0.0296412
r106 314 317 13.2128
r107 314 315 16.3327
r108 311 406 0.103
r109 310 314 13.2128
r110 310 311 16.3327
r111 307 332 0.294
r112 307 411 0.103
r113 306 307 16.3327
r114 304 466 0.00770322
r115 304 403 0.0296412
r116 304 411 0.0296412
r117 303 306 13.2128
r118 303 304 16.3327
r119 301 403 0.103
r120 301 404 0.103
r121 300 303 13.2128
r122 300 301 16.3327
r123 298 462 0.00770322
r124 298 397 0.0296412
r125 298 404 0.0296412
r126 294 397 0.105
r127 294 398 0.117
r128 293 294 16.3327
r129 290 458 0.00770322
r130 290 398 0.0296412
r131 289 293 14.5532
r132 289 290 16.3327
r133 286 311 0.294
r134 286 407 0.103
r135 285 286 16.3327
r136 283 464 0.00770322
r137 283 400 0.0296412
r138 283 407 0.0296412
r139 282 285 13.2128
r140 282 283 16.3327
r141 280 400 0.103
r142 280 401 0.103
r143 279 282 13.2128
r144 279 280 16.3327
r145 277 460 0.00770322
r146 277 394 0.0296412
r147 277 401 0.0296412
r148 273 394 0.105
r149 273 395 0.117
r150 272 273 16.3327
r151 269 456 0.00770322
r152 269 395 0.0296412
r153 268 272 14.5532
r154 268 269 16.3327
r155 265 454 0.00770322
r156 265 391 0.0296412
r157 264 265 16.3327
r158 262 391 0.117
r159 262 392 0.105
r160 261 264 14.5532
r161 261 262 16.3327
r162 258 450 0.00770322
r163 258 385 0.0296412
r164 258 392 0.0296412
r165 255 385 0.103
r166 255 386 0.103
r167 254 255 16.3327
r168 252 446 0.00770322
r169 252 378 0.0296412
r170 252 386 0.0296412
r171 251 254 13.2128
r172 251 252 16.3327
r173 248 378 0.103
r174 247 251 13.2128
r175 247 248 16.3327
r176 244 452 0.00770322
r177 244 388 0.0296412
r178 243 244 16.3327
r179 241 388 0.117
r180 241 389 0.105
r181 240 243 14.5532
r182 240 241 16.3327
r183 237 448 0.00770322
r184 237 382 0.0296412
r185 237 389 0.0296412
r186 234 382 0.103
r187 234 383 0.103
r188 233 234 16.3327
r189 231 444 0.00770322
r190 231 374 0.0296412
r191 231 383 0.0296412
r192 230 233 13.2128
r193 230 231 16.3327
r194 227 374 0.103
r195 226 230 13.2128
r196 226 227 16.3327
r197 223 248 0.294
r198 223 379 0.103
r199 222 223 16.3327
r200 220 442 0.00770322
r201 220 371 0.0296412
r202 220 379 0.0296412
r203 219 222 13.2128
r204 219 220 16.3327
r205 217 371 0.103
r206 217 372 0.103
r207 216 219 13.2128
r208 216 217 16.3327
r209 214 438 0.00770322
r210 214 363 0.0296412
r211 214 372 0.0296412
r212 210 363 0.105
r213 210 366 0.04
r214 209 210 16.3327
r215 206 434 0.00770322
r216 206 357 0.0296412
r217 206 364 0.0296412
r218 205 209 14.5532
r219 205 206 16.3327
r220 202 227 0.294
r221 202 375 0.103
r222 201 202 16.3327
r223 199 440 0.00770322
r224 199 368 0.0296412
r225 199 375 0.0296412
r226 198 201 13.2128
r227 198 199 16.3327
r228 196 368 0.103
r229 196 369 0.103
r230 195 198 13.2128
r231 195 196 16.3327
r232 193 436 0.00770322
r233 193 360 0.0296412
r234 193 369 0.0296412
r235 189 360 0.105
r236 189 361 0.117
r237 188 189 16.3327
r238 185 432 0.00770322
r239 185 354 0.0296412
r240 185 361 0.0296412
r241 184 188 14.5532
r242 184 185 16.3327
r243 181 357 0.397
r244 181 358 0.103
r245 180 181 16.3327
r246 175 430 0.00770322
r247 175 351 0.0296412
r248 175 358 0.0296412
r249 174 175 16.3327
r250 171 354 0.397
r251 171 355 0.103
r252 170 171 16.3327
r253 165 428 0.00770322
r254 165 355 0.0296412
r255 164 165 16.3327
r256 161 351 0.259
r257 161 352 0.103
r258 160 161 16.3327
r259 155 426 0.00770322
r260 155 352 0.0296412
r261 154 155 16.3327
r262 151 478 0.2248
r263 150 151 8.16635
r264 148 150 2.295
r265 146 476 0.1192
r266 145 146 8.16635
r267 143 145 2.295
r268 142 474 0.2248
r269 141 142 8.16635
r270 139 141 2.295
r271 138 141 2.295
r272 137 472 0.1192
r273 136 137 8.16635
r274 134 136 2.295
r275 133 136 2.295
r276 132 470 0.2248
r277 131 132 8.16635
r278 129 131 2.295
r279 128 131 2.295
r280 127 468 0.1192
r281 126 127 8.16635
r282 124 126 2.295
r283 123 126 2.295
r284 122 466 0.2248
r285 121 122 8.16635
r286 119 121 2.295
r287 118 121 2.295
r288 117 464 0.1192
r289 116 117 8.16635
r290 114 116 2.295
r291 113 116 2.295